LAMMPS (31 Mar 2017)
# sample LAMMPS input script for thermal conductivity of liquid LJ
# thermostatting 2 regions via fix langevin

# settings

variable	x equal 10
variable	y equal 10
variable	z equal 20
variable        d equal 10
variable        edge1 equal $z+$d
variable        edge1 equal 20+$d
variable        edge1 equal 20+10
variable        edge2 equal 2*$z+$d
variable        edge2 equal 2*20+$d
variable        edge2 equal 2*20+10

variable	rho equal 0.6
variable        t equal 1.35
variable	rc equal 2.5
variable        tlo equal 1.0
variable        thi equal 1.70

# setup problem

units		lj
atom_style	atomic

lattice		fcc 0.6
Lattice spacing in x,y,z = 1.88207 1.88207 1.88207
region		box1 block 0 10 0 10 0 50
create_box	2 box1
Created orthogonal box = (0 0 0) to (18.8207 18.8207 94.1036)

region          box2 block 0 $x 0 $y 0 $z
region          box2 block 0 10 0 $y 0 $z
region          box2 block 0 10 0 10 0 $z
region          box2 block 0 10 0 10 0 20
region          box3 block 0 10 0 10 30 50
create_atoms	1 region box2
Created 8200 atoms
create_atoms	2 region box3
Created 8000 atoms
mass		* 1.0

velocity	all create $t 87287
velocity	all create 1.35 87287

pair_style	hybrid lj/cut 2.5 eam
pair_coeff      1 1 eam Au_u3.eam
Reading potential file Au_u3.eam with DATE: 2007-06-11
pair_coeff      2 2 eam Au_u3.eam
pair_coeff	1 2 lj/cut 1.0 1.0

neighbor	0.3 bin
neigh_modify	delay 0 every 1

# heat layers
region          hot block INF INF INF INF 0 $z
region          hot block INF INF INF INF 0 20
region          cold block  INF INF INF INF 30 50
compute         Thot all temp/region hot
compute         Tcold all temp/region cold

# 1st equilibration run

fix             1 all nvt temp $t $t 0.5
fix             1 all nvt temp 1.35 $t 0.5
fix             1 all nvt temp 1.35 1.35 0.5
thermo	        100
run             3000
  update every 1 steps, delay 0 steps, check yes
Step Temp E_pair E_mol TotEng Press
0     265.9095    314.85017            0     713.6898    375.28899
Averages over the last 16 of 31 rows, steps 1500 to 3000:
Temp E_pair E_mol TotEng Press
1.9342 248.275 0 251.176 202.269
Loop time of 475.099 on 1 procs for 3000 steps with 16200 atoms

velocity	all scale $t
velocity	all scale 1.35

unfix		1

# 2nd equilibration run

fix		1 all nve
fix             hot all langevin 1.7 1.7 1.0 59804 tally yes
fix             cold all langevin 1 1 1.0 287859 tally yes
fix_modify      hot temp Thot
fix_modify      cold temp Tcold

variable        tdiff equal c_Thot-c_Tcold
thermo_style    custom step temp c_Thot c_Tcold f_hot f_cold v_tdiff
thermo	        1000
run             20000
Step Temp c_Thot c_Tcold f_hot f_cold v_tdiff
3000         1.35   0.90830552    1.0388628           -0           -0  -0.13055726
Averages over the last 11 of 21 rows, steps 13000 to 23000:
Temp c_Thot c_Tcold f_hot f_cold v_tdiff
9.53652 1.93239 1.25244 33.1338 37.3136 0.679952
Loop time of 2519.1 on 1 procs for 20000 steps with 16200 atoms

# thermal conductivity calculation
# reset langevin thermostats to zero energy accumulation

compute		ke all ke/atom
variable	temp atom c_ke/1.5

fix             hot all langevin 1.7 1.7 1.0 59804 tally yes
fix             cold all langevin 1 1 1.0 287859 tally yes
fix_modify      hot temp Thot
fix_modify      cold temp Tcold

fix             ave all ave/time 10 100 1000 v_tdiff ave running
thermo_style    custom step temp c_Thot c_Tcold f_hot f_cold v_tdiff f_ave

compute         layers all chunk/atom bin/1d z lower 0.05 units reduced
fix		2 all ave/chunk 10 100 1000 layers v_temp file profile.langevin

run             40000
Step Temp c_Thot c_Tcold f_hot f_cold v_tdiff f_ave
23000    8.3565336    1.8503133    1.2210699           -0           -0   0.62924337            0
Averages over the last 21 of 41 rows, steps 43000 to 63000:
Temp c_Thot c_Tcold f_hot f_cold v_tdiff f_ave
3.71694 1.77687 1.08519 21.4014 23.6757 0.691678 0.688028
Loop time of 4104.2 on 1 procs for 40000 steps with 16200 atoms
